* C:\Users\tom\code\pybamm_liionpack\liionpack\circuits\4p1s.asc
V0 N006 N010 4
V1 N007 N011 4
V2 N008 N012 4
V3 N009 N013 4
Ri0 N002 N006 5e-2
Ri1 N003 N007 5e-2
Ri2 N004 N008 5e-2
Ri3 N005 N009 5e-2
Rc0 N010 N014 1e-3
Rc1 N011 N015 1e-3
Rc2 N012 N016 1e-3
Rc3 N013 N017 1e-3
Rbp1 N003 N002 1e-4
Rbp2 N004 N003 1e-4
Rbp3 N005 N004 1e-4
Rtp0 N002 N001 1e-5
Rtb0 N014 0 1e-5
Rbn1 N015 N014 1e-4
Rbn2 N016 N015 1e-4
Rbn3 N017 N016 1e-4
I0 N001 0 -2
.op 1
.backanno
.end
