Version 4
SHEET 1 880 680
WIRE 80 -608 64 -608
WIRE 176 -608 160 -608
WIRE 192 -608 176 -608
WIRE 288 -608 272 -608
WIRE 304 -608 288 -608
WIRE 400 -608 384 -608
WIRE 512 -608 400 -608
WIRE 64 -560 64 -608
WIRE 176 -560 176 -608
WIRE 288 -560 288 -608
WIRE 400 -560 400 -608
WIRE 64 -432 64 -480
WIRE 176 -432 176 -480
WIRE 288 -432 288 -480
WIRE 400 -432 400 -480
WIRE 64 -320 64 -352
WIRE 176 -320 176 -352
WIRE 288 -320 288 -352
WIRE 400 -320 400 -352
WIRE 512 -224 512 -608
WIRE 64 -192 64 -240
WIRE 64 -192 -160 -192
WIRE 80 -192 64 -192
WIRE 176 -192 176 -240
WIRE 176 -192 160 -192
WIRE 192 -192 176 -192
WIRE 288 -192 288 -240
WIRE 288 -192 272 -192
WIRE 304 -192 288 -192
WIRE 400 -192 400 -240
WIRE 400 -192 384 -192
WIRE 64 -144 64 -192
WIRE 176 -144 176 -192
WIRE 288 -144 288 -192
WIRE 400 -144 400 -192
WIRE -160 -16 -160 -192
WIRE 64 -16 64 -64
WIRE 176 -16 176 -64
WIRE 288 -16 288 -64
WIRE 400 -16 400 -64
WIRE 64 96 64 64
WIRE 176 96 176 64
WIRE 288 96 288 64
WIRE 400 96 400 64
WIRE -160 224 -160 64
WIRE 64 224 64 176
WIRE 64 224 -160 224
WIRE 80 224 64 224
WIRE 176 224 176 176
WIRE 176 224 160 224
WIRE 192 224 176 224
WIRE 288 224 288 176
WIRE 288 224 272 224
WIRE 304 224 288 224
WIRE 400 224 400 176
WIRE 400 224 384 224
WIRE 512 224 512 -144
WIRE 512 224 400 224
WIRE -160 256 -160 224
FLAG -160 256 0
SYMBOL res 48 80 R0
SYMATTR InstName Rc0
SYMATTR Value 1e-2
SYMBOL voltage 176 -32 R0
WINDOW 123 0 0 Left 0
WINDOW 39 0 0 Left 0
SYMATTR InstName V1
SYMATTR Value 4
SYMBOL voltage 288 -32 R0
WINDOW 123 0 0 Left 0
WINDOW 39 0 0 Left 0
SYMATTR InstName V2
SYMATTR Value 4
SYMBOL voltage 400 -32 R0
WINDOW 123 0 0 Left 0
WINDOW 39 0 0 Left 0
SYMATTR InstName V3
SYMATTR Value 4
SYMBOL res 160 80 R0
SYMATTR InstName Rc1
SYMATTR Value 1e-2
SYMBOL res 272 80 R0
SYMATTR InstName Rc2
SYMATTR Value 1e-2
SYMBOL res 384 80 R0
SYMATTR InstName Rc3
SYMATTR Value 1e-2
SYMBOL res 48 -160 R0
SYMATTR InstName Ri0
SYMATTR Value 5e-2
SYMBOL res 160 -160 R0
SYMATTR InstName Ri1
SYMATTR Value 5e-2
SYMBOL res 272 -160 R0
SYMATTR InstName Ri2
SYMATTR Value 5e-2
SYMBOL res 384 -160 R0
SYMATTR InstName Ri3
SYMATTR Value 5e-2
SYMBOL res 176 -208 R90
WINDOW 0 0 56 VBottom 2
WINDOW 3 32 56 VTop 2
SYMATTR InstName Rbp0
SYMATTR Value 1e-4
SYMBOL res 288 -208 R90
WINDOW 0 0 56 VBottom 2
WINDOW 3 32 56 VTop 2
SYMATTR InstName Rbp1
SYMATTR Value 1e-4
SYMBOL res 400 -208 R90
WINDOW 0 0 56 VBottom 2
WINDOW 3 32 56 VTop 2
SYMATTR InstName Rbp2
SYMATTR Value 1e-4
SYMBOL res 176 208 R90
WINDOW 0 0 56 VBottom 2
WINDOW 3 32 56 VTop 2
SYMATTR InstName Rbn0
SYMATTR Value 1e-4
SYMBOL res 288 208 R90
WINDOW 0 0 56 VBottom 2
WINDOW 3 32 56 VTop 2
SYMATTR InstName Rbn1
SYMATTR Value 1e-4
SYMBOL res 400 208 R90
WINDOW 0 0 56 VBottom 2
WINDOW 3 32 56 VTop 2
SYMATTR InstName Rbn2
SYMATTR Value 1e-4
SYMBOL res 48 -336 R0
SYMATTR InstName Ri4
SYMATTR Value 5e-2
SYMBOL voltage 64 -336 R180
WINDOW 0 24 96 Left 2
WINDOW 3 24 16 Left 2
WINDOW 123 0 0 Left 0
WINDOW 39 0 0 Left 0
SYMATTR InstName V4
SYMATTR Value 4
SYMBOL voltage 176 -336 R180
WINDOW 0 24 96 Left 2
WINDOW 3 24 16 Left 2
WINDOW 123 0 0 Left 0
WINDOW 39 0 0 Left 0
SYMATTR InstName V5
SYMATTR Value 4
SYMBOL voltage 288 -336 R180
WINDOW 0 24 96 Left 2
WINDOW 3 24 16 Left 2
WINDOW 123 0 0 Left 0
WINDOW 39 0 0 Left 0
SYMATTR InstName V6
SYMATTR Value 4
SYMBOL voltage 400 -336 R180
WINDOW 0 24 96 Left 2
WINDOW 3 24 16 Left 2
WINDOW 123 0 0 Left 0
WINDOW 39 0 0 Left 0
SYMATTR InstName V7
SYMATTR Value 4
SYMBOL res 160 -336 R0
SYMATTR InstName Ri5
SYMATTR Value 5e-2
SYMBOL res 272 -336 R0
SYMATTR InstName Ri6
SYMATTR Value 5e-2
SYMBOL res 384 -336 R0
SYMATTR InstName Ri7
SYMATTR Value 5e-2
SYMBOL res 48 -576 R0
SYMATTR InstName Rc4
SYMATTR Value 1e-2
SYMBOL res 160 -576 R0
SYMATTR InstName Rc5
SYMATTR Value 1e-2
SYMBOL res 272 -576 R0
SYMATTR InstName Rc6
SYMATTR Value 1e-2
SYMBOL res 384 -576 R0
SYMATTR InstName Rc7
SYMATTR Value 1e-2
SYMBOL current -160 -16 R0
WINDOW 123 0 0 Left 0
WINDOW 39 0 0 Left 0
SYMATTR InstName I1
SYMATTR Value -2
SYMBOL res 496 -240 R0
SYMATTR InstName Rbn3
SYMATTR Value 5e-4
SYMBOL res 176 -624 R90
WINDOW 0 0 56 VBottom 2
WINDOW 3 32 56 VTop 2
SYMATTR InstName Rbn6
SYMATTR Value 1e-4
SYMBOL res 288 -624 R90
WINDOW 0 0 56 VBottom 2
WINDOW 3 32 56 VTop 2
SYMATTR InstName Rbn5
SYMATTR Value 1e-4
SYMBOL res 400 -624 R90
WINDOW 0 0 56 VBottom 2
WINDOW 3 32 56 VTop 2
SYMATTR InstName Rbn4
SYMATTR Value 1e-4
SYMBOL voltage 64 -32 R0
WINDOW 123 0 0 Left 0
WINDOW 39 0 0 Left 0
SYMATTR InstName V0
SYMATTR Value 4
TEXT -194 274 Left 2 !.op
